data_PbI3FA_111
_audit_creation_date              2019-03-15
_audit_creation_method            'Materials Studio'
_symmetry_space_group_name_H-M    'P1'
_symmetry_Int_Tables_number       1
_symmetry_cell_setting            triclinic
loop_
_symmetry_equiv_pos_as_xyz
  x,y,z
_cell_length_a                    6.0331
_cell_length_b                    6.0570
_cell_length_c                    6.1385
_cell_angle_alpha                 90.0000
_cell_angle_beta                  90.0000
_cell_angle_gamma                 90.0000
loop_
_atom_site_label
_atom_site_type_symbol
_atom_site_fract_x
_atom_site_fract_y
_atom_site_fract_z
Pb    Pb     0.48938   0.49993   0.50494  
Cl     Cl    0.48225   0.49978   0.00373  
Cl     Cl    0.48975  -0.00009   0.51263  
Cl     Cl    0.99081   0.50013   0.50051  
C      C     1.03534   0.05825   1.04519  
N      N     0.92934   0.94551   1.20116  
N      N     0.99481   1.00834   0.83608  
H      H     1.15343   1.18875   1.08878  
H      H     0.95881   0.97918   1.36459  
H      H     0.81469   0.82201   1.16425  
H      H     0.88311   0.88411   0.79279  
H      H     1.07670   1.09359   0.71352  
